
     RDKit          3D

 89 91  0  0  0  0  0  0  0  0999 V2000
   -3.5293   -0.1204    3.2757 C   0  0  0  0  0  0  0  0  0  0  0  0
   -3.1130   -0.8666    1.9998 C   0  0  2  0  0  0  0  0  0  0  0  0
   -4.1232   -1.9955    1.6890 C   0  0  0  0  0  0  0  0  0  0  0  0
   -3.8849   -2.6381    0.3018 C   0  0  0  0  0  0  0  0  0  0  0  0
   -5.1780   -3.0229   -0.4406 C   0  0  0  0  0  0  0  0  0  0  0  0
   -6.1038   -1.8398   -0.8089 C   0  0  0  0  0  0  0  0  0  0  0  0
   -5.3602   -0.6465   -1.4290 C   0  0  0  0  0  0  0  0  0  0  0  0
   -6.3375    0.4312   -1.9193 C   0  0  0  0  0  0  0  0  0  0  0  0
   -5.6483    1.5536   -2.4473 O   0  0  0  0  0  0  0  0  0  0  0  0
   -5.1197    2.3787   -1.4183 C   0  0  0  0  0  0  0  0  0  0  0  0
   -3.6133    2.2857   -1.3870 C   0  0  0  0  0  0  0  0  0  0  0  0
   -3.0168    1.9286   -2.4401 O   0  0  0  0  0  0  0  0  0  0  0  0
   -2.8454    2.6628   -0.2159 N   0  0  0  0  0  0  0  0  0  0  0  0
   -1.3676    2.6956   -0.2722 C   0  0  2  0  0  0  0  0  0  0  0  0
   -0.7666    1.9394    0.8938 C   0  0  0  0  0  0  0  0  0  0  0  0
   -0.3457    2.5542    1.9095 O   0  0  0  0  0  0  0  0  0  0  0  0
   -0.7419    0.5037    0.8598 N   0  0  0  0  0  0  0  0  0  0  0  0
   -0.5712   -0.3277    2.0607 C   0  0  1  0  0  0  0  0  0  0  0  0
   -1.6668   -1.4212    2.1173 C   0  0  0  0  0  0  0  0  0  0  0  0
    0.8548   -0.9506    2.1130 C   0  0  1  0  0  0  0  0  0  0  0  0
    1.3720   -1.4532    0.7427 C   0  0  0  0  0  0  0  0  0  0  0  0
    2.3872   -2.5033    0.9040 N   0  0  0  0  0  0  0  0  0  0  0  0
    3.3040   -2.5435   -0.2456 C   0  0  0  0  0  0  0  0  0  0  0  0
    3.4506   -3.9461   -0.8276 C   0  0  0  0  0  0  0  0  0  0  0  0
    2.7087   -2.8759   -1.6141 C   0  0  0  0  0  0  0  0  0  0  0  0
    4.5953   -1.7648   -0.1500 C   0  0  0  0  0  0  0  0  0  0  0  0
    5.6389   -2.2495    0.6491 C   0  0  0  0  0  0  0  0  0  0  0  0
    6.8253   -1.5316    0.7692 C   0  0  0  0  0  0  0  0  0  0  0  0
    6.9827   -0.3138    0.1040 C   0  0  0  0  0  0  0  0  0  0  0  0
    5.9413    0.2154   -0.6978 C   0  0  0  0  0  0  0  0  0  0  0  0
    4.7451   -0.5349   -0.8050 C   0  0  0  0  0  0  0  0  0  0  0  0
    6.0822    1.5400   -1.4810 C   0  0  0  0  0  0  0  0  0  0  0  0
    7.4259    2.2659   -1.2170 C   0  0  0  0  0  0  0  0  0  0  0  0
    6.0009    1.2436   -2.9929 C   0  0  0  0  0  0  0  0  0  0  0  0
    4.9437    2.5043   -1.0830 C   0  0  0  0  0  0  0  0  0  0  0  0
    1.7724   -0.0379    2.6593 O   0  0  0  0  0  0  0  0  0  0  0  0
   -0.8702    4.1465   -0.3548 C   0  0  0  0  0  0  0  0  0  0  0  0
   -3.5369    3.0968    1.0040 C   0  0  0  0  0  0  0  0  0  0  0  0
   -4.5704    0.2487    3.1836 H   0  0  0  0  0  0  0  0  0  0  0  0
   -3.4667   -0.7932    4.1553 H   0  0  0  0  0  0  0  0  0  0  0  0
   -2.8859    0.7705    3.4452 H   0  0  0  0  0  0  0  0  0  0  0  0
   -3.1671   -0.1381    1.1667 H   0  0  0  0  0  0  0  0  0  0  0  0
   -5.1452   -1.5689    1.7453 H   0  0  0  0  0  0  0  0  0  0  0  0
   -4.0677   -2.7835    2.4758 H   0  0  0  0  0  0  0  0  0  0  0  0
   -3.2664   -1.9855   -0.3500 H   0  0  0  0  0  0  0  0  0  0  0  0
   -3.2862   -3.5630    0.4518 H   0  0  0  0  0  0  0  0  0  0  0  0
   -4.8954   -3.5528   -1.3782 H   0  0  0  0  0  0  0  0  0  0  0  0
   -5.7467   -3.7466    0.1831 H   0  0  0  0  0  0  0  0  0  0  0  0
   -6.8623   -2.2098   -1.5310 H   0  0  0  0  0  0  0  0  0  0  0  0
   -6.6623   -1.5013    0.0898 H   0  0  0  0  0  0  0  0  0  0  0  0
   -4.7076   -0.1970   -0.6593 H   0  0  0  0  0  0  0  0  0  0  0  0
   -4.7304   -0.9907   -2.2788 H   0  0  0  0  0  0  0  0  0  0  0  0
   -7.0573    0.7169   -1.1187 H   0  0  0  0  0  0  0  0  0  0  0  0
   -6.9522    0.0009   -2.7390 H   0  0  0  0  0  0  0  0  0  0  0  0
   -5.3830    3.4284   -1.6562 H   0  0  0  0  0  0  0  0  0  0  0  0
   -5.5511    2.1657   -0.4128 H   0  0  0  0  0  0  0  0  0  0  0  0
   -1.0014    2.1905   -1.1957 H   0  0  0  0  0  0  0  0  0  0  0  0
   -0.9396    0.0279   -0.0491 H   0  0  0  0  0  0  0  0  0  0  0  0
   -0.6896    0.2920    2.9762 H   0  0  0  0  0  0  0  0  0  0  0  0
   -1.4739   -2.1408    1.2963 H   0  0  0  0  0  0  0  0  0  0  0  0
   -1.5729   -1.9874    3.0693 H   0  0  0  0  0  0  0  0  0  0  0  0
    0.8173   -1.8175    2.8075 H   0  0  0  0  0  0  0  0  0  0  0  0
    1.7664   -0.5906    0.1607 H   0  0  0  0  0  0  0  0  0  0  0  0
    0.5296   -1.8817    0.1619 H   0  0  0  0  0  0  0  0  0  0  0  0
    2.9574   -2.3111    1.7591 H   0  0  0  0  0  0  0  0  0  0  0  0
    2.7796   -4.7172   -0.4035 H   0  0  0  0  0  0  0  0  0  0  0  0
    4.4433   -4.1993   -1.2563 H   0  0  0  0  0  0  0  0  0  0  0  0
    3.2740   -2.4963   -2.4893 H   0  0  0  0  0  0  0  0  0  0  0  0
    1.6091   -3.0460   -1.6469 H   0  0  0  0  0  0  0  0  0  0  0  0
    5.5300   -3.1870    1.1752 H   0  0  0  0  0  0  0  0  0  0  0  0
    7.6283   -1.9224    1.3834 H   0  0  0  0  0  0  0  0  0  0  0  0
    7.9266    0.1937    0.2276 H   0  0  0  0  0  0  0  0  0  0  0  0
    3.9295   -0.1728   -1.4154 H   0  0  0  0  0  0  0  0  0  0  0  0
    7.4719    3.2294   -1.7732 H   0  0  0  0  0  0  0  0  0  0  0  0
    7.5355    2.5072   -0.1396 H   0  0  0  0  0  0  0  0  0  0  0  0
    8.2885    1.6507   -1.5536 H   0  0  0  0  0  0  0  0  0  0  0  0
    6.7907    0.5211   -3.2904 H   0  0  0  0  0  0  0  0  0  0  0  0
    5.0104    0.8137   -3.2653 H   0  0  0  0  0  0  0  0  0  0  0  0
    6.1428    2.1777   -3.5863 H   0  0  0  0  0  0  0  0  0  0  0  0
    3.9463    2.1152   -1.3828 H   0  0  0  0  0  0  0  0  0  0  0  0
    4.9424    2.6682    0.0138 H   0  0  0  0  0  0  0  0  0  0  0  0
    5.0739    3.4882   -1.5816 H   0  0  0  0  0  0  0  0  0  0  0  0
    1.7845    0.7664    2.0803 H   0  0  0  0  0  0  0  0  0  0  0  0
   -1.3185    4.6403   -1.2441 H   0  0  0  0  0  0  0  0  0  0  0  0
   -1.1458    4.7235    0.5555 H   0  0  0  0  0  0  0  0  0  0  0  0
    0.2327    4.1618   -0.4657 H   0  0  0  0  0  0  0  0  0  0  0  0
   -4.2436    3.9161    0.7654 H   0  0  0  0  0  0  0  0  0  0  0  0
   -2.8232    3.4837    1.7623 H   0  0  0  0  0  0  0  0  0  0  0  0
   -4.0893    2.2394    1.4438 H   0  0  0  0  0  0  0  0  0  0  0  0
  1  2  1  0
  2  3  1  0
  3  4  1  0
  4  5  1  0
  5  6  1  0
  6  7  1  0
  7  8  1  0
  8  9  1  0
  9 10  1  0
 10 11  1  0
 11 12  2  0
 11 13  1  0
 13 14  1  0
 14 15  1  0
 15 16  2  0
 15 17  1  0
 17 18  1  0
 18 19  1  0
 18 20  1  0
 20 21  1  0
 21 22  1  0
 22 23  1  0
 23 24  1  0
 24 25  1  0
 23 26  1  0
 26 27  2  0
 27 28  1  0
 28 29  2  0
 29 30  1  0
 30 31  2  0
 30 32  1  0
 32 33  1  0
 32 34  1  0
 32 35  1  0
 20 36  1  0
 14 37  1  0
 13 38  1  0
 19  2  1  0
 25 23  1  0
 31 26  1  0
  1 39  1  0
  1 40  1  0
  1 41  1  0
  2 42  1  6
  3 43  1  0
  3 44  1  0
  4 45  1  0
  4 46  1  0
  5 47  1  0
  5 48  1  0
  6 49  1  0
  6 50  1  0
  7 51  1  0
  7 52  1  0
  8 53  1  0
  8 54  1  0
 10 55  1  0
 10 56  1  0
 14 57  1  6
 17 58  1  0
 18 59  1  1
 19 60  1  0
 19 61  1  0
 20 62  1  1
 21 63  1  0
 21 64  1  0
 22 65  1  0
 24 66  1  0
 24 67  1  0
 25 68  1  0
 25 69  1  0
 27 70  1  0
 28 71  1  0
 29 72  1  0
 31 73  1  0
 33 74  1  0
 33 75  1  0
 33 76  1  0
 34 77  1  0
 34 78  1  0
 34 79  1  0
 35 80  1  0
 35 81  1  0
 35 82  1  0
 36 83  1  0
 37 84  1  0
 37 85  1  0
 37 86  1  0
 38 87  1  0
 38 88  1  0
 38 89  1  0
M  END
$$$$
