
     RDKit          3D

147154  0  0  0  0  0  0  0  0999 V2000
   23.7460   15.0670   33.9610 C   0  0  2  0  0  0  0  0  0  0  0  0
   23.6320   16.4990   33.6580 O   0  0  0  0  0  0  0  0  0  0  0  0
   23.1640   14.2710   32.7970 C   0  0  2  0  0  0  0  0  0  0  0  0
   23.8340   14.6340   31.5780 O   0  0  0  0  0  0  0  0  0  0  0  0
   21.6960   14.5930   32.6080 C   0  0  1  0  0  0  0  0  0  0  0  0
   21.2130   13.7180   31.5750 O   0  0  0  0  0  0  0  0  0  0  0  0
   20.9300   14.3260   33.8940 C   0  0  1  0  0  0  0  0  0  0  0  0
   21.5410   15.0960   35.0750 C   0  0  2  0  0  0  0  0  0  0  0  0
   22.9830   14.7500   35.1840 O   0  0  0  0  0  0  0  0  0  0  0  0
   20.8760   14.8980   36.4460 C   0  0  2  0  0  0  0  0  0  0  0  0
   20.3070   13.5880   36.5510 O   0  0  0  0  0  0  0  0  0  0  0  0
   26.0460   19.9140   33.9600 C   0  0  2  0  0  0  0  0  0  0  0  0
   24.8540   20.7180   33.6580 O   0  0  0  0  0  0  0  0  0  0  0  0
   26.3040   18.9620   32.7950 C   0  0  2  0  0  0  0  0  0  0  0  0
   26.4360   19.7120   31.5770 O   0  0  0  0  0  0  0  0  0  0  0  0
   25.1370   18.0160   32.6080 C   0  0  1  0  0  0  0  0  0  0  0  0
   25.5190   17.0930   31.5750 O   0  0  0  0  0  0  0  0  0  0  0  0
   24.8670   17.2510   33.8940 C   0  0  1  0  0  0  0  0  0  0  0  0
   24.6470   18.2090   35.0760 C   0  0  2  0  0  0  0  0  0  0  0  0
   25.8170   19.1210   35.1830 O   0  0  0  0  0  0  0  0  0  0  0  0
   24.3870   17.5670   36.4450 C   0  0  2  0  0  0  0  0  0  0  0  0
   25.0590   16.3040   36.5510 O   0  0  0  0  0  0  0  0  0  0  0  0
   23.6880   24.7350   33.9600 C   0  0  2  0  0  0  0  0  0  0  0  0
   22.3170   24.3030   33.6570 O   0  0  0  0  0  0  0  0  0  0  0  0
   24.5930   24.3430   32.7950 C   0  0  2  0  0  0  0  0  0  0  0  0
   24.0890   24.9140   31.5760 O   0  0  0  0  0  0  0  0  0  0  0  0
   24.6060   22.8400   32.6070 C   0  0  1  0  0  0  0  0  0  0  0  0
   25.5650   22.5640   31.5740 O   0  0  0  0  0  0  0  0  0  0  0  0
   25.0370   22.1530   33.8930 C   0  0  1  0  0  0  0  0  0  0  0  0
   24.1510   22.5770   35.0740 C   0  0  2  0  0  0  0  0  0  0  0  0
   24.1660   24.0610   35.1830 O   0  0  0  0  0  0  0  0  0  0  0  0
   24.4910   21.9740   36.4450 C   0  0  2  0  0  0  0  0  0  0  0  0
   25.8970   21.7120   36.5510 O   0  0  0  0  0  0  0  0  0  0  0  0
   18.4490   25.8970   33.9610 C   0  0  2  0  0  0  0  0  0  0  0  0
   17.9330   24.5560   33.6580 O   0  0  0  0  0  0  0  0  0  0  0  0
   19.3210   26.3610   32.7970 C   0  0  2  0  0  0  0  0  0  0  0  0
   18.5600   26.3220   31.5770 O   0  0  0  0  0  0  0  0  0  0  0  0
   20.5030   25.4340   32.6080 C   0  0  1  0  0  0  0  0  0  0  0  0
   21.3170   26.0110   31.5750 O   0  0  0  0  0  0  0  0  0  0  0  0
   21.3090   25.3410   33.8930 C   0  0  1  0  0  0  0  0  0  0  0  0
   20.4250   24.9130   35.0750 C   0  0  2  0  0  0  0  0  0  0  0  0
   19.2750   25.8510   35.1830 O   0  0  0  0  0  0  0  0  0  0  0  0
   21.1090   24.8030   36.4450 C   0  0  2  0  0  0  0  0  0  0  0  0
   22.1910   25.7370   36.5510 O   0  0  0  0  0  0  0  0  0  0  0  0
   14.2760   22.5260   33.9610 C   0  0  2  0  0  0  0  0  0  0  0  0
   15.0010   21.2860   33.6580 O   0  0  0  0  0  0  0  0  0  0  0  0
   14.4550   23.4960   32.7970 C   0  0  2  0  0  0  0  0  0  0  0  0
   14.0100   22.8780   31.5790 O   0  0  0  0  0  0  0  0  0  0  0  0
   15.9180   23.8430   32.6090 C   0  0  1  0  0  0  0  0  0  0  0  0
   15.9740   24.8390   31.5750 O   0  0  0  0  0  0  0  0  0  0  0  0
   16.4920   24.4160   33.8940 C   0  0  1  0  0  0  0  0  0  0  0  0
   16.2770   23.4550   35.0750 C   0  0  2  0  0  0  0  0  0  0  0  0
   14.8260   23.1420   35.1840 O   0  0  0  0  0  0  0  0  0  0  0  0
   16.7900   23.9220   36.4460 C   0  0  2  0  0  0  0  0  0  0  0  0
   16.7320   25.3510   36.5520 O   0  0  0  0  0  0  0  0  0  0  0  0
   14.3080   17.1600   33.9610 C   0  0  2  0  0  0  0  0  0  0  0  0
   15.7300   16.9540   33.6580 O   0  0  0  0  0  0  0  0  0  0  0  0
   13.6620   17.9060   32.7960 C   0  0  2  0  0  0  0  0  0  0  0  0
   13.8680   17.1740   31.5770 O   0  0  0  0  0  0  0  0  0  0  0  0
   14.3030   19.2660   32.6080 C   0  0  1  0  0  0  0  0  0  0  0  0
   13.5590   19.9320   31.5740 O   0  0  0  0  0  0  0  0  0  0  0  0
   14.2130   20.0700   33.8940 C   0  0  1  0  0  0  0  0  0  0  0  0
   14.8270   19.3040   35.0750 C   0  0  2  0  0  0  0  0  0  0  0  0
   14.1700   17.9750   35.1830 O   0  0  0  0  0  0  0  0  0  0  0  0
   14.7830   19.9950   36.4450 C   0  0  2  0  0  0  0  0  0  0  0  0
   13.6300   20.8410   36.5510 O   0  0  0  0  0  0  0  0  0  0  0  0
   18.5240   13.8410   33.9600 C   0  0  2  0  0  0  0  0  0  0  0  0
   19.5700   14.8240   33.6580 O   0  0  0  0  0  0  0  0  0  0  0  0
   17.5380   13.8000   32.7950 C   0  0  2  0  0  0  0  0  0  0  0  0
   18.2400   13.5050   31.5770 O   0  0  0  0  0  0  0  0  0  0  0  0
   16.8740   15.1490   32.6070 C   0  0  1  0  0  0  0  0  0  0  0  0
   15.8900   14.9820   31.5740 O   0  0  0  0  0  0  0  0  0  0  0  0
   16.1880   15.5820   33.8940 C   0  0  1  0  0  0  0  0  0  0  0  0
   17.1700   15.5840   35.0750 C   0  0  2  0  0  0  0  0  0  0  0  0
   17.8000   14.2410   35.1830 O   0  0  0  0  0  0  0  0  0  0  0  0
   16.6020   15.9800   36.4450 C   0  0  2  0  0  0  0  0  0  0  0  0
   15.2210   15.6060   36.5510 O   0  0  0  0  0  0  0  0  0  0  0  0
   24.7820   14.7870   34.1090 H   0  0  0  0  0  0  0  0  0  0  0  0
   23.2870   13.2070   33.0020 H   0  0  0  0  0  0  0  0  0  0  0  0
   24.3000   15.4780   31.6930 H   0  0  0  0  0  0  0  0  0  0  0  0
   21.5780   15.6370   32.3120 H   0  0  0  0  0  0  0  0  0  0  0  0
   21.9260   13.6480   30.9240 H   0  0  0  0  0  0  0  0  0  0  0  0
   20.9260   13.2550   34.1040 H   0  0  0  0  0  0  0  0  0  0  0  0
   21.4930   16.1620   34.8480 H   0  0  0  0  0  0  0  0  0  0  0  0
   20.0660   15.6190   36.5520 H   0  0  0  0  0  0  0  0  0  0  0  0
   21.6100   15.0680   37.2330 H   0  0  0  0  0  0  0  0  0  0  0  0
   26.9110   20.5500   34.1080 H   0  0  0  0  0  0  0  0  0  0  0  0
   27.2130   18.3950   32.9990 H   0  0  0  0  0  0  0  0  0  0  0  0
   26.0680   20.6030   31.6920 H   0  0  0  0  0  0  0  0  0  0  0  0
   24.2470   18.5760   32.3120 H   0  0  0  0  0  0  0  0  0  0  0  0
   26.0190   17.6060   30.9240 H   0  0  0  0  0  0  0  0  0  0  0  0
   25.7050   16.5830   34.1000 H   0  0  0  0  0  0  0  0  0  0  0  0
   23.7840   18.8360   34.8490 H   0  0  0  0  0  0  0  0  0  0  0  0
   23.3150   17.4090   36.5660 H   0  0  0  0  0  0  0  0  0  0  0  0
   24.7350   18.2410   37.2300 H   0  0  0  0  0  0  0  0  0  0  0  0
   24.4600   15.6170   36.2300 H   0  0  0  0  0  0  0  0  0  0  0  0
   23.7300   25.8080   34.1080 H   0  0  0  0  0  0  0  0  0  0  0  0
   25.6030   24.7000   32.9990 H   0  0  0  0  0  0  0  0  0  0  0  0
   23.1630   25.1820   31.6920 H   0  0  0  0  0  0  0  0  0  0  0  0
   23.6140   22.4930   32.3110 H   0  0  0  0  0  0  0  0  0  0  0  0
   25.4750   23.2740   30.9230 H   0  0  0  0  0  0  0  0  0  0  0  0
   26.0820   22.3910   34.0990 H   0  0  0  0  0  0  0  0  0  0  0  0
   23.1230   22.2920   34.8460 H   0  0  0  0  0  0  0  0  0  0  0  0
   23.9470   21.0370   36.5670 H   0  0  0  0  0  0  0  0  0  0  0  0
   24.1810   22.6670   37.2290 H   0  0  0  0  0  0  0  0  0  0  0  0
   26.0610   20.8160   36.2290 H   0  0  0  0  0  0  0  0  0  0  0  0
   17.6370   26.5990   34.1090 H   0  0  0  0  0  0  0  0  0  0  0  0
   19.6720   27.3740   33.0010 H   0  0  0  0  0  0  0  0  0  0  0  0
   17.7720   25.7660   31.6940 H   0  0  0  0  0  0  0  0  0  0  0  0
   20.1550   24.4420   32.3120 H   0  0  0  0  0  0  0  0  0  0  0  0
   20.7060   26.3850   30.9240 H   0  0  0  0  0  0  0  0  0  0  0  0
   21.7740   26.3060   34.0990 H   0  0  0  0  0  0  0  0  0  0  0  0
   20.0060   23.9320   34.8480 H   0  0  0  0  0  0  0  0  0  0  0  0
   21.5010   23.7930   36.5670 H   0  0  0  0  0  0  0  0  0  0  0  0
   20.3750   24.9940   37.2300 H   0  0  0  0  0  0  0  0  0  0  0  0
   22.9940   25.3090   36.2280 H   0  0  0  0  0  0  0  0  0  0  0  0
   13.2210   22.3280   34.1090 H   0  0  0  0  0  0  0  0  0  0  0  0
   13.8820   24.4010   33.0020 H   0  0  0  0  0  0  0  0  0  0  0  0
   13.9550   21.9160   31.6930 H   0  0  0  0  0  0  0  0  0  0  0  0
   16.4770   22.9530   32.3140 H   0  0  0  0  0  0  0  0  0  0  0  0
   15.3010   24.5940   30.9250 H   0  0  0  0  0  0  0  0  0  0  0  0
   16.0270   25.3810   34.1010 H   0  0  0  0  0  0  0  0  0  0  0  0
   16.7830   22.5160   34.8470 H   0  0  0  0  0  0  0  0  0  0  0  0
   17.8250   23.6010   36.5680 H   0  0  0  0  0  0  0  0  0  0  0  0
   16.1840   23.4660   37.2310 H   0  0  0  0  0  0  0  0  0  0  0  0
   17.5690   25.7110   36.2300 H   0  0  0  0  0  0  0  0  0  0  0  0
   13.8050   16.2120   34.1090 H   0  0  0  0  0  0  0  0  0  0  0  0
   12.5970   18.0230   33.0000 H   0  0  0  0  0  0  0  0  0  0  0  0
   14.5860   16.5300   31.6920 H   0  0  0  0  0  0  0  0  0  0  0  0
   15.3480   19.1480   32.3130 H   0  0  0  0  0  0  0  0  0  0  0  0
   13.3300   19.2520   30.9230 H   0  0  0  0  0  0  0  0  0  0  0  0
   13.1680   20.3080   34.1000 H   0  0  0  0  0  0  0  0  0  0  0  0
   15.8770   19.1140   34.8480 H   0  0  0  0  0  0  0  0  0  0  0  0
   15.6800   20.6030   36.5660 H   0  0  0  0  0  0  0  0  0  0  0  0
   14.7620   19.2370   37.2300 H   0  0  0  0  0  0  0  0  0  0  0  0
   13.8710   21.7210   36.2300 H   0  0  0  0  0  0  0  0  0  0  0  0
   18.9520   12.8580   34.1160 H   0  0  0  0  0  0  0  0  0  0  0  0
   16.7840   13.0390   33.0010 H   0  0  0  0  0  0  0  0  0  0  0  0
   19.1900   13.6650   31.6920 H   0  0  0  0  0  0  0  0  0  0  0  0
   17.6180   15.8920   32.3120 H   0  0  0  0  0  0  0  0  0  0  0  0
   16.2790   14.3810   30.9240 H   0  0  0  0  0  0  0  0  0  0  0  0
   15.3510   14.9130   34.1010 H   0  0  0  0  0  0  0  0  0  0  0  0
   17.9740   16.2850   34.8490 H   0  0  0  0  0  0  0  0  0  0  0  0
   16.6880   17.0600   36.5680 H   0  0  0  0  0  0  0  0  0  0  0  0
   17.1830   15.4880   37.2270 H   0  0  0  0  0  0  0  0  0  0  0  0
   14.6840   16.3410   36.2290 H   0  0  0  0  0  0  0  0  0  0  0  0
   20.1354   13.1929   37.4424 H   0  0  0  0  0  0  0  0  0  0  0  0
  1 78  1  1
  1  2  1  0
  1  3  1  0
  1  9  1  0
  2 18  1  0
  3 79  1  1
  3  4  1  0
  3  5  1  0
  4 80  1  0
  5 81  1  6
  5  6  1  0
  5  7  1  0
  6 82  1  0
  7 83  1  1
  7  8  1  0
  7 68  1  0
  8 84  1  6
  8  9  1  0
  8 10  1  0
 10 85  1  1
 10 86  1  0
 10 11  1  0
 12 87  1  1
 12 13  1  0
 12 14  1  0
 12 20  1  0
 13 29  1  0
 14 88  1  1
 14 15  1  0
 14 16  1  0
 15 89  1  0
 16 90  1  6
 16 17  1  0
 16 18  1  0
 17 91  1  0
 18 92  1  1
 18 19  1  0
 19 93  1  6
 19 20  1  0
 19 21  1  0
 21 94  1  1
 21 95  1  0
 21 22  1  0
 22 96  1  0
 23 97  1  1
 23 24  1  0
 23 25  1  0
 23 31  1  0
 24 40  1  0
 25 98  1  1
 25 26  1  0
 25 27  1  0
 26 99  1  0
 27100  1  6
 27 28  1  0
 27 29  1  0
 28101  1  0
 29102  1  1
 29 30  1  0
 30103  1  6
 30 31  1  0
 30 32  1  0
 32104  1  1
 32105  1  0
 32 33  1  0
 33106  1  0
 34107  1  1
 34 35  1  0
 34 36  1  0
 34 42  1  0
 35 51  1  0
 36108  1  1
 36 37  1  0
 36 38  1  0
 37109  1  0
 38110  1  6
 38 39  1  0
 38 40  1  0
 39111  1  0
 40112  1  1
 40 41  1  0
 41113  1  6
 41 42  1  0
 41 43  1  0
 43114  1  1
 43115  1  0
 43 44  1  0
 44116  1  0
 45117  1  1
 45 46  1  0
 45 47  1  0
 45 53  1  0
 46 62  1  0
 47118  1  1
 47 48  1  0
 47 49  1  0
 48119  1  0
 49120  1  6
 49 50  1  0
 49 51  1  0
 50121  1  0
 51122  1  1
 51 52  1  0
 52123  1  6
 52 53  1  0
 52 54  1  0
 54124  1  1
 54125  1  0
 54 55  1  0
 55126  1  0
 56127  1  1
 56 57  1  0
 56 58  1  0
 56 64  1  0
 57 73  1  0
 58128  1  1
 58 59  1  0
 58 60  1  0
 59129  1  0
 60130  1  6
 60 61  1  0
 60 62  1  0
 61131  1  0
 62132  1  1
 62 63  1  0
 63133  1  6
 63 64  1  0
 63 65  1  0
 65134  1  1
 65135  1  0
 65 66  1  0
 66136  1  0
 67137  1  1
 67 68  1  0
 67 69  1  0
 67 75  1  0
 69138  1  1
 69 70  1  0
 69 71  1  0
 70139  1  0
 71140  1  6
 71 72  1  0
 71 73  1  0
 72141  1  0
 73142  1  1
 73 74  1  0
 74143  1  6
 74 75  1  0
 74 76  1  0
 76144  1  1
 76145  1  0
 76 77  1  0
 77146  1  0
 11147  1  0
M  END
